FN Thomson Reuters Web of Science™
VR 1.0
PT J
AU Hu, WF
   Choi, KK
   Zhupanska, O
   Buchholz, JHJ
AF Hu, Weifei
   Choi, K. K.
   Zhupanska, Olesya
   Buchholz, James H. J.
TI Integrating variable wind load, aerodynamic, and structural analyses
   towards accurate fatigue life prediction in composite wind turbine
   blades
SO STRUCTURAL AND MULTIDISCIPLINARY OPTIMIZATION
LA English
DT Article
DE Wind turbine blade; Fatigue analysis; Variable wind load; Composite
   material; Aerodynamic analysis
ID ROTOR BLADES; OPTIMIZATION; SIMULATION; CRITERION; DESIGN; MODEL;
   FAILURE
AB A comprehensive fatigue analysis framework for composite wind turbine blades has been developed. It includes variable wind loads from wind field simulation and aerodynamic analysis, stress prediction by finite element analysis, and fatigue damage evaluation based on the resulting fatigue data. The variable wind load is represented by a joint distribution of mean wind speed and turbulence intensity. In order to simulate realistic wind loads applied on the blade while maintaining affordable computational time, the sectional surface pressure fields obtained from the potential flow aerodynamics model XFOIL are transformed to match the lift, drag, and moment coefficients obtained using AeroDyn. Thus, the modified pressure distribution includes the effect of dynamic stall, rotation, and wake effects on the blade aerodynamics. A high-fidelity finite element blade model, in which the design of composite materials can be easily tailored, has been parameterized for detailed stress analysis. The non-proportional multi-axial complex stress states are involved when calculating 10-min fatigue damage of section points through laminate thickness. The annual fatigue damage is calculated based on the 10-min fatigue damage and the joint distribution of 10-min mean wind speed and 10-min turbulence intensity. Consequently, the blade fatigue effect due to not only the mean wind speed and the atmospheric turbulence in the short term, but also the wind load variation in a large spatiotemporal range, can be investigated. The developed fatigue analysis framework can facilitate reliability analysis and reliability-based design optimization of composite wind turbine blades.
C1 [Hu, Weifei; Choi, K. K.; Zhupanska, Olesya; Buchholz, James H. J.] Univ Iowa, Dept Mech & Ind Engn, Iowa City, IA 52242 USA.
RP Choi, KK (reprint author), Univ Iowa, Dept Mech & Ind Engn, Iowa City, IA 52242 USA.
EM kkchoi@engineering.uiowa.edu
RI Choi, Kyung/B-1512-2008
OI Choi, Kyung/0000-0003-2384-6220
FU Iowa Alliance Wind Innovation and Novel Development (IAWIND)
   [09-IPF-15]; National Science Foundation EPSCoR [EPS-1101284]
FX This work is primarily supported by the Iowa Alliance Wind Innovation
   and Novel Development (IAWIND) 09-IPF-15 and by the National Science
   Foundation EPSCoR under Grant Number EPS-1101284. Any opinions,
   findings, and conclusions or recommendations expressed in this work are
   those of the authors and do not necessarily reflect the views of the
   National Science Foundation. Weifei Hu also extends his gratitude to Dr.
   Hyunkyoo Cho, Dr. Nicholas J. Gaul, and Dr. Ed Hardee for many helpful
   discussions.
CR [Anonymous], 2012, HYPERWORKS DESKT US
   ASTM Committee, 2004, STAND PRACT STAT AN
   ASTM Committee, 2005, STAND PRACT CYCL COU
   Bottasso CL, 2014, MULTIBODY SYST DYN, V32, P87, DOI 10.1007/s11044-013-9394-3
   Burton T., 2011, WIND ENERGY HDB
   Drela M, 2001, XFOIL 6 9 USER GUIDE
   Fossum PK, 2013, J SOL ENERGY ENG, V135
   Found MS, 2003, FATIGUE FRACT ENG M, V26, P17, DOI 10.1046/j.1460-2695.2003.00583.x
   FUJII T, 1995, J COMPOS MATER, V29, P573
   Gamstedt EK, 2002, INT J FATIGUE, V24, P437, DOI 10.1016/S0142-1123(01)00099-8
   Glauert H., 1935, AERODYNAMIC THEORY
   Griffith D Todd, 2011, SAND20113779 SAND NA
   Grujicic M, 2010, J MATER ENG PERFORM, V19, P1116, DOI 10.1007/s11665-010-9596-2
   Hansen MOL, 2006, PROG AEROSP SCI, V42, P285, DOI 10.1016/j.paerosci.2006.10.002
   Harris B., 2003, FATIGUE COMPOSITES S
   HASHIN Z, 1973, J COMPOS MATER, V7, P448, DOI 10.1177/002199837300700404
   Hoog RV, 2005, INTRO MATH STAT
   Hu W, 2012, 14 AIAA ISSMO MULT A
   Hu WF, 2013, ENG OPTIMIZ, V45, P1469, DOI 10.1080/0305215X.2012.743533
   Hu W, 2012, J MECH SCI TECHNOL, V26, P129, DOI 10.1007/s12206-011-1018-3
   Hu Z, 2013, STRUCT MULTIDISCIP O, V47, P765, DOI 10.1007/s00158-012-0839-8
   IEC, 2005, 614001 IEC
   Jones RM, 1999, MECH COMPOSITE MAT, P102
   Jonkman BJ, 2009, NRELTP50046198
   Jonkman J., 2009, NRELTP50038060
   Jonkman J. M., 2005, NRELEL50038230
   Kong C, 2005, ENERGY, V30, P2101, DOI 10.1016/j.energy.2004.08.016
   Kong C, 2006, INT J FATIGUE, V28, P1382, DOI 10.1016/j.ijfatigue.2006.02.034
   Leishman J. G., 1989, J AM HELICOPTER SOC, V34, P3, DOI [10.4050/JAHS.34.3JHESAK0002-8711, DOI 10.4050/JAHS.34.3]
   Liu YM, 2005, COMPOS STRUCT, V69, P11, DOI 10.1016/j.compstruct.2004.04.012
   Liu YM, 2007, INT J FATIGUE, V29, P347, DOI 10.1016/j.ijfatigue.2006.03.011
   Mandell JF, 2014, SNL MSU DOE COMPOSIT
   Manwell J. F., 2009, WIND ENERGY EXPLAINE
   [Anonymous], 2012, MATL HELP
   Mishnaevsky L, 2012, WIND ENERGY, V15, P83, DOI 10.1002/we.470
   Moriarty P. J., 2005, NRELEL5003881
   Moriarty P.J., 2004, NRELTP50034421
   Noda M, 1999, J WIND ENG IND AEROD, V83, P527, DOI 10.1016/S0167-6105(99)00099-9
   Noh Y, 2010, STRUCT MULTIDISCIP O, V40, P35, DOI 10.1007/s00158-009-0385-1
   Nussbaumer A., 2011, FATIGUE DESIGN STEEL
   Paepegem WV, 2002, MECH ADV MATER STRUC, V9, P19
   Pro/ENGINEER wildfire 5.0, 2009, PRO E HELP MAN
   Petrone G, 2011, 49 AIAA AER SCI M IN
   Philippidis TP, 2004, COMPOS PART A-APPL S, V35, P657, DOI 10.1016/j.compositesa.2004.02.009
   Philippidis TP, 2002, INT J FATIGUE, V24, P825, DOI 10.1016/S0142-1123(02)00004-X
   Puck A, 2002, COMPOS SCI TECHNOL, V62, P371, DOI 10.1016/S0266-3538(01)00202-0
   Ragan P, 2007, WIND ENG, V31, P83, DOI 10.1260/030952407781494494
   Ronold KO, 2001, ENG STRUCT, V23, P993, DOI 10.1016/S0141-0296(00)00109-7
   Ronold KO, 1999, ENG STRUCT, V21, P1101, DOI 10.1016/S0141-0296(98)00048-0
   Shokrieh MM, 2006, COMPOS STRUCT, V74, P332, DOI 10.1016/j.compstruct.2005.04.027
   Soker H, 2004, P GERM WIND EN C DEW
   Spera D., 1998, WIND TURBINE TECHNOL
   Sun XS, 2012, J COMPOS MATER, V46, P449, DOI 10.1177/0021998311418701
   Vassilopoulos AP, 2011, ENG MATER PROCESS, P1, DOI 10.1007/978-1-84996-181-3
   Veers PS, 2003, WIND ENERGY, V6, P245, DOI 10.1002/we.90
   Veers PS, 1997, ASME WIND EN S HELD
   Veers P. S., 1988, SAND880152UC261 SAND
   Wang L, 2014, ENERGY, V76, P487, DOI 10.1016/j.energy.2014.08.046
   Wei Z, 2010, P ASME 2010 4 INT C
   Winterstein SR, 2000, SAND942459 SAND NAT
   Yu DO, 2014, RENEW ENERG, V70, P184, DOI 10.1016/j.renene.2014.03.033
   Vassilopoulos AP, 2010, WOODHEAD PUBL MATER, P1, DOI 10.1533/9781845699796
   [Anonymous], 2011, ABAQUS CAE VERSION 6
NR 63
TC 6
Z9 6
U1 5
U2 16
PU SPRINGER
PI NEW YORK
PA 233 SPRING ST, NEW YORK, NY 10013 USA
SN 1615-147X
EI 1615-1488
J9 STRUCT MULTIDISCIP O
JI Struct. Multidiscip. Optim.
PD MAR
PY 2016
VL 53
IS 3
BP 375
EP 394
DI 10.1007/s00158-015-1338-5
PG 20
WC Computer Science, Interdisciplinary Applications; Engineering,
   Multidisciplinary; Mechanics
SC Computer Science; Engineering; Mechanics
GA DH2KV
UT WOS:000372615400001
ER

PT J
AU Vazquez, A
   Iglesias, G
AF Vazquez, A.
   Iglesias, G.
TI Grid parity in tidal stream energy projects: An assessment of financial,
   technological and economic LCOE input parameters
SO TECHNOLOGICAL FORECASTING AND SOCIAL CHANGE
LA English
DT Article
DE Tidal stream energy; Levelised cost of energy; Sensitivity analysis;
   Grid parity
ID BOTTOM-FIXED TURBINES; OFFSHORE WIND ENERGY; WAVE ENERGY; RENEWABLE
   ENERGY; LEVELIZED COST; POWER; FARM; RESOURCE; CURRENTS; IMPACT
AB Assessments in electricity production technologies are usually supported by a levelised cost of energy (LCOE) analysis. Such cost analyses are riddled with uncertainty, with LCOE values depending on a number of financial, technical and economic variables. When it comes to minimising LCOE, the question arises as to which parameters have a greater bearing especially if the current grid parity gap between tidal stream energy and conventional sources is to be narrowed. The aim of this study is to investigate the independent effects of the input variables on LCOE values, in order to determine the main drivers in closing the grid parity gap between tidal stream energy costs and traditional grid-power costs. The assessment features six tidal stream farms, in which different numbers of turbines, rows and spacing are considered. Not only are the device interactions of each configuration considered (by means of numerical modelling) but also the impacts of the financial and economic variables. In addition to individual variable sensitivity, a multivariable scenario analysis estimates the combined effect on the projected LCOE of varying an entire set of inputs simultaneously. As a result, it is found that the power coefficient is one of the inputs with the greatest bearing on the LCOE, closely followed by the discount rate and the capital costs (CAPEX). On this basis, a LCOE best-case scenario is constructed, which characterises tidal stream energy projects in terms of economic viability over a variety of conditions in four countries. (C) 2015 Elsevier Inc. All rights reserved.
C1 [Vazquez, A.] Univ Santiago de Compostela, EPS, Hydraul Engn, Campus Univ S-N, Lugo 27002, Spain.
   [Iglesias, G.] Univ Plymouth, Sch Marine Sci & Engn, Plymouth PL4 8AA, Devon, England.
RP Vazquez, A (reprint author), Univ Santiago de Compostela, EPS, Hydraul Engn, Campus Univ S-N, Lugo 27002, Spain.
EM angela.vazquez@usc.es
FU FPU grant of the Ministry of Education, Culture and Sports, Spain
   [13/03822]; Barrie Foundation
FX The authors wish to thank the British Oceanographic Data Centre for
   providing tide gauge records. During this work A. Vazquez has been
   supported by FPU grant 13/03822 of the Ministry of Education, Culture
   and Sports, Spain and by a grant from the Barrie Foundation for
   undertaking a predoctoral fellowship at Plymouth University, UK.
CR Abanades J, 2015, MAR GEOL, V361, P126, DOI 10.1016/j.margeo.2015.01.008
   Abanades J, 2015, RENEW ENERG, V75, P572, DOI 10.1016/j.renene.2014.10.048
   Ahmadian R, 2012, RENEW ENERG, V38, P107, DOI 10.1016/j.renene.2011.07.005
   Astariz S, 2015, J RENEW SUSTAIN ENER, V7, DOI 10.1063/1.4932154
   Astariz S, 2015, RENEW ENERG, V83, P837, DOI 10.1016/j.renene.2015.05.028
   Astariz S, 2015, RENEW SUST ENERG REV, V45, P397, DOI 10.1016/j.rser.2015.01.061
   Astariz S, 2015, ENERG CONVERS MANAGE, V91, P63, DOI 10.1016/j.enconman.2014.11.060
   Azzellino A, 2013, INT J MAR ENERGY, V3-4, pe11, DOI DOI 10.1016/J.IJ0ME.2013.11.008
   Bahaj AS, 2007, RENEW ENERG, V32, P407, DOI 10.1016/j.renene.2006.01.012
   BBV (Binnie Black and Veatch), 2001, T0600209REP BBV ETSU
   Beels C, 2011, RENEW ENERG, V36, P3402, DOI 10.1016/j.renene.2011.05.019
   Blunden LS, 2007, P I MECH ENG A-J POW, V221, P137, DOI 10.1243/09576509JPE332
   Blunden LS, 2006, RENEW ENERG, V31, P121, DOI 10.1016/j.renene.2005.08.016
   Branker K, 2011, RENEW SUST ENERG REV, V15, P4470, DOI 10.1016/j.rser.2011.07.104
   Carbon Trust, 2011, CTC797
   The Carbon Trust, 2006, FUT MAR EN RES MAR E
   Carballo R, 2015, ENERG CONVERS MANAGE, V93, P1, DOI 10.1016/j.enconman.2014.12.068
   Carballo R, 2014, ENERGY, V68, P572, DOI 10.1016/j.energy.2014.02.093
   Carballo R, 2009, RENEW ENERG, V34, P1517, DOI 10.1016/j.renene.2008.10.028
   Cory K., 2009, TECHNICAL REPORT
   Darling SB, 2011, ENERG ENVIRON SCI, V4, P3133, DOI 10.1039/c0ee00698j
   DECC, 2013, WAV TID EN PART UKS
   DECC, 2013, UK REN EN ROADM UPD
   Defne Z, 2011, RENEW ENERG, V36, P3461, DOI 10.1016/j.renene.2011.05.027
   Dushaw BD, 1997, PROG OCEANOGR, V40, P337, DOI 10.1016/S0079-6611(98)00008-1
   Fairley I, 2013, RENEW ENERG, V57, P70, DOI 10.1016/j.renene.2013.01.024
   Fraenkel PL, 2006, IBIS, V148, P145, DOI 10.1111/j.1474-919X.2006.00518.x
   Fraenkel P. L., 2002, P I MECH ENG A, V216
   Garrett C, 2005, P ROY SOC A-MATH PHY, V461, P2563, DOI 10.1098/rspa.2005.1494
   Garrett C, 2007, J FLUID MECH, V588, P243, DOI 10.1017/S0022112007007781
   Hearps P., 2011, TECHNICAL PAPER SERI
   IEA, 2005, PROJ COSTS GEN EL
   Jeffrey H, 2014, TECHNOL FORECAST SOC, V84, P155, DOI 10.1016/j.techfore.2013.08.006
   Karakaya E, 2015, RENEW SUST ENERG REV, V43, P1090, DOI 10.1016/j.rser.2014.11.077
   Lamy J., COMP TRADE OFFS TIDA
   Lee JH, 2012, APPL ENERG, V98, P512, DOI 10.1016/j.apenergy.2012.04.018
   Li Y, 2014, RENEW ENERG, V68, P868, DOI 10.1016/j.renene.2013.09.020
   Lucheroni C., 2014, 11 INT C EUR EN MARK, P1
   MacGillivray A, 2014, TECHNOL FORECAST SOC, V87, P108, DOI 10.1016/j.techfore.2013.11.005
   Malki R, 2014, RENEW ENERG, V63, P46, DOI [10.1016/j.renene.2013.08.039, 10.1016/i.renene.2013.08.039]
   Marine Current Turbines Ltd, SEAGEN TID EN SYST R
   Masini A, 2013, TECHNOL FORECAST SOC, V80, P510, DOI 10.1016/j.techfore.2012.08.003
   McLachlan C., 2010, 144 U MANCH TYND CTR
   Mills L., 2015, H1 2015 GLOBAL LCOE
   Munoz LAH, 2014, TECHNOL FORECAST SOC, V87, P179, DOI 10.1016/j.techfore.2013.12.012
   Neill SP, 2014, RENEW ENERG, V68, P337, DOI 10.1016/j.renene.2014.01.052
   Ohunakin SO, 2012, ENERG POLICY, V48, P594, DOI 10.1016/j.enpol.2012.05.064
   Ouedraogo BI, 2015, RENEW ENERG, V78, P573, DOI 10.1016/j.renene.2015.01.044
   Ouyang XL, 2014, ENERG POLICY, V70, P64, DOI 10.1016/j.enpol.2014.03.030
   Pacheco A, 2014, ENERGY, V71, P104, DOI 10.1016/j.energy.2014.04.075
   Perez-Collazo C, 2015, RENEW SUST ENERG REV, V42, P141, DOI [10.1016/j.rser.2014.09.032, 10.1016/kser.2014.09.032]
   PMSS, 2010, OFFSH REN RES DEV S
   Ramos V, 2014, ENERGY, V71, P432, DOI 10.1016/j.energy.2014.04.098
   Ramos V, 2014, ENERG CONVERS MANAGE, V80, P137, DOI 10.1016/j.enconman.2014.01.027
   Ramos V, 2013, ENERGY, V61, P541, DOI 10.1016/j.energy.2013.08.051
   Ramos V, 2013, ENERG CONVERS MANAGE, V69, P49, DOI 10.1016/j.enconman.2013.01.008
   Robins PE, 2015, APPL ENERG, V147, P510, DOI 10.1016/j.apenergy.2015.03.045
   Robins PE, 2014, RENEW ENERG, V72, P311, DOI 10.1016/j.renene.2014.07.037
   Sanchez M, 2014, ENERGY, V77, P802, DOI 10.1016/j.energy.2014.09.053
   Sanchez M, 2014, ENERGY, V72, P691, DOI 10.1016/j.energy.2014.05.096
   Sanchez M, 2014, APPL ENERG, V116, P167, DOI 10.1016/j.apenergy.2013.11.052
   SI OCEAN, 2013, OC EN COST EN COST R
   Squatrito R, 2014, ENERGIES, V7, P7147, DOI 10.3390/en7117147
   Turnock SR, 2011, OCEAN ENG, V38, P1300, DOI 10.1016/j.oceaneng.2011.05.018
   Vazquez A, 2015, ENERGY, V91, P192, DOI 10.1016/j.energy.2015.08.012
   Vazquez A, 2015, ENERG CONVERS MANAGE, V97, P428, DOI 10.1016/j.enconman.2015.03.044
   Vazquez A, 2015, OCEAN COAST MANAGE, V105, P15, DOI 10.1016/j.ocecoaman.2014.12.017
   Vazquez A., 2014, 3 IAHR EUR C P 2014
   Veigas M, 2014, ENERG CONVERS MANAGE, V86, P300, DOI 10.1016/j.enconman.2014.05.032
   Veigas M, 2014, ENERGY SUSTAIN DEV, V22, P57, DOI 10.1016/j.esd.2013.11.004
   Vennell R, 2015, RENEW SUST ENERG REV, V41, P454, DOI 10.1016/j.rser.2014.08.022
   Verbruggen A, 2010, ENERG POLICY, V38, P850, DOI 10.1016/j.enpol.2009.10.036
   Vicinanza D, 2013, RENEW ENERG, V50, P506, DOI 10.1016/j.renene.2012.07.015
   Wave Hub Ltd, DEM ZON
   Willis M. R., 2010, P I CIVIL ENG-ENERGY, p[163, 93]
   Winskel M, 2014, TECHNOL FORECAST SOC, V81, P96, DOI 10.1016/j.techfore.2012.10.015
   Lim Yun Seng, 2009, MARINE TIDAL CURRENT
NR 77
TC 3
Z9 3
U1 3
U2 14
PU ELSEVIER SCIENCE INC
PI NEW YORK
PA 360 PARK AVE SOUTH, NEW YORK, NY 10010-1710 USA
SN 0040-1625
EI 1873-5509
J9 TECHNOL FORECAST SOC
JI Technol. Forecast. Soc. Chang.
PD MAR
PY 2016
VL 104
BP 89
EP 101
DI 10.1016/j.techfore.2015.12.007
PG 13
WC Business; Planning & Development
SC Business & Economics; Public Administration
GA DG9CZ
UT WOS:000372381700008
ER

PT J
AU Huenteler, J
   Schmidt, TS
   Ossenbrink, J
   Hoffmann, VH
AF Huenteler, Joern
   Schmidt, Tobias S.
   Ossenbrink, Jan
   Hoffmann, Volker H.
TI Technology life-cycles in the energy sector - Technological
   characteristics and the role of deployment for innovation
SO TECHNOLOGICAL FORECASTING AND SOCIAL CHANGE
LA English
DT Article
DE Technology life-cycle; Energy technology; Patents; Citation-network
   analysis; Wind power; Solar PV
ID PATENT CITATION NETWORKS; TECHNICAL CHANGE; DOMINANT DESIGNS;
   DEMAND-PULL; KNOWLEDGE; INDUSTRY; TRAJECTORIES; SYSTEM; DISCONTINUITIES;
   TRANSFORMATION
AB Understanding the long-term patterns of innovation in energy technologies is crucial for technology forecasting and public policy planning in the context of climate change. This paper analyzes which of two common models of innovation over the technology life-cycle- - the product-process innovation shift observed for mass-produced goods or the system-component shift observed for complex products and systems- best describes the pattern of innovation in energy technologies. To this end, we develop a novel, patent-based methodology to study how the focus of innovation changes over the course of the technology life-cycle. Specifically, we analyze patent-citation networks in solar PV and wind power in the period 1963-2009. The results suggest that solar PV technology followed the life-cycle pattern of mass-produced goods: early product innovations were followed by a surge of process innovations in solar cell production. Wind turbine technology, by contrast, more closely resembled the life-cycle of complex products and systems: the focus of innovative activity shifted over time through different parts of the product, rather than from product to process innovations. These findings point to very different innovation and learning processes in energy technologies and the need to tailor technology policy to technological characteristics. They also help conceptualize previously inconclusive evidence about the impact of technology policies in the past. (C) 2015 Elsevier Inc. All rights reserved.
C1 [Huenteler, Joern; Ossenbrink, Jan; Hoffmann, Volker H.] Swiss Fed Inst Technol, Dept Management Technol & Econ, Zurich, Switzerland.
   [Huenteler, Joern] Harvard Univ, John F Kennedy Sch Govt, Belfer Ctr Sci & Int Affairs, Cambridge, MA 02138 USA.
   [Schmidt, Tobias S.] Swiss Fed Inst Technol, Dept Humanities Social & Polit Sci, Zurich, Switzerland.
   [Schmidt, Tobias S.] Stanford Univ, Precourt Energy Efficiency Ctr, Stanford, CA 94305 USA.
RP Huenteler, J (reprint author), Harvard Univ, John F Kennedy Sch Govt, Belfer Ctr Sci & Int Affairs, Cambridge, MA 02138 USA.
EM joern_huenteler@hks.harvard.edu
FU Swiss Commission for Technology and Innovation (CTI) [KTI. 1155000154]
FX This research is part of the activities of SCCER CREST (Swiss Competence
   Center for Energy Research), which is financially supported by the Swiss
   Commission for Technology and Innovation (CTI) under Grant No. KTI.
   1155000154. Previous versions of this paper have been presented at the
   School of Science and Technology Policy at KAIST, South Korea, the
   Energy Policy Consortium Seminar at Harvard University, USA, the ECN/ETH
   Zurich side event at UNFCCC COP 18 in Doha, Qatar, the International
   Sustainability Transitions 2012 conference in Copenhagen, Denmark, and
   the International Schumpeter Society Conference 2012 in Brisbane,
   Australia. We are grateful for the feedback received from the conference
   and workshop participants, as well as from David Goldblatt, Pascal
   Sommer, Kavita Surana, and Joern Hoppmann.
CR ABERNATHY WJ, 1978, TECHNOL REV, V80, P40
   ABERNATHY WJ, 1985, RES POLICY, V14, P3, DOI 10.1016/0048-7333(85)90021-6
   Abernathy W. J., 1988, READINGS MANAGEMENT, P25
   Anadon LD, 2012, RES POLICY, V41, P1742, DOI 10.1016/j.respol.2012.02.015
   Andersen P. D., 2004, International Journal of Energy Technology and Policy, V2, P33, DOI 10.1504/IJETP.2004.004586
   ANDERSON P, 1990, ADMIN SCI QUART, V35, P604, DOI 10.2307/2393511
   Barbera-Tomas D, 2011, RES POLICY, V40, P473, DOI 10.1016/j.respol.2010.11.002
   Barua P, 2012, DELIVERING CLEAN ENE
   Batagelj V., 2004, PAJEK ANAL VISUALIZA
   Bekkers R, 2012, TECHNOL FORECAST SOC, V79, P1192, DOI 10.1016/j.techfore.2012.01.009
   Berger A., 2003, CHANG TRANSFORM DEV
   BNEF, 2012, SOL POW UPD 2012
   BNEF, 2012, WIND EN INN
   Bolinger M., 2011, UNDERSTANDING TRENDS
   Brusoni S, 2001, ADMIN SCI QUART, V46, P597, DOI 10.2307/3094825
   Candelise C, 2013, RENEW SUST ENERG REV, V26, P96, DOI 10.1016/j.rser.2013.05.012
   Choi C, 2009, TECHNOL FORECAST SOC, V76, P754, DOI 10.1016/j.techfore.2008.10.007
   Davies A., 1997, INT J INNOVATION MAN, V1, P229, DOI DOI 10.1142/S1363919697000139
   Davies A., 2005, BUSINESS PROJECTS MA
   Dechezlepretre A, 2014, ENVIRON RESOUR ECON, V58, P391, DOI 10.1007/s10640-013-9705-4
   de Nooy W., 2011, EXPLORATORY SOCIAL N
   DOSI G, 1982, RES POLICY, V11, P147, DOI 10.1016/0048-7333(82)90016-6
   Epicoco M, 2014, TECHNOL FORECAST SOC, V81, P388, DOI 10.1016/j.techfore.2013.03.006
   Epicoco M, 2013, RES POLICY, V42, P180, DOI 10.1016/j.respol.2012.06.009
   Fleming L, 2001, RES POLICY, V30, P1019, DOI 10.1016/S0048-7333(00)00135-9
   Fontana R., 2009, EC INNOVATION NEW TE, V18, P311, DOI DOI 10.1080/10438590801969073
   Fraunhofer I., 2014, PHOTOVOLTAICS REPORT
   Fraunhofer I.S.E., 2012, PHOTOVOLTAICS REPORT
   Funk J, 2009, RES POLICY, V38, P1192, DOI 10.1016/j.respol.2009.03.007
   Gallagher KS, 2012, ANNU REV ENV RESOUR, V37, P137, DOI 10.1146/annurev-environ-060311-133915
   Gallagher KS, 2014, URBAN IND ENVIRON, P1
   Garud R, 2003, RES POLICY, V32, P277, DOI 10.1016/S0048-7333(02)00100-2
   German Federal Diet, 1999, PLEN PROT 14 39
   GORT M, 1982, ECON J, V92, P630, DOI 10.2307/2232554
   GRILICHES Z, 1990, J ECON LIT, V28, P1661
   Grubb Meric, 2004, KEIO EC STUDIES, V41, P103
   Grubler A, 2014, ENERGY TECHNOLOGY INNOVATION: LEARNING FROM HISTORICAL SUCCESSES AND FAILURES, P39
   Harhoff D, 2003, RES POLICY, V32, P1343, DOI 10.1016/S0048-7333(02)00124-5
   Hatch NW, 1998, MANAGE SCI, V44, P1461, DOI 10.1287/mnsc.44.11.1461
   HENDERSON R, 1995, RES POLICY, V24, P631, DOI 10.1016/S0048-7333(94)00790-X
   Ho JC, 2014, TECHNOL FORECAST SOC, V82, P66, DOI 10.1016/j.techfore.2013.06.004
   Hobday M, 1998, RES POLICY, V26, P689, DOI 10.1016/S0048-7333(97)00044-9
   Hoffmann W., 2004, 19 PVSEC PAR, P15
   Hoppmann J, 2013, RES POLICY, V42, P989, DOI 10.1016/j.respol.2013.01.002
   Huenteler J., 2015, J CLEAN PRO IN PRESS
   Huenteler J., 2014, PRODUCTS DESIGN HIER
   HUMMON NP, 1989, SOC NETWORKS, V11, P39, DOI 10.1016/0378-8733(89)90017-8
   lEA, 2012, TRENDS PHOT POW SYST
   International Energy Agency (IEA), 2014, WORLD EN OUTL 2014
   IRENA, 2015, REN POW GEN COSTS
   Jager-Waldau A, 2004, SOL ENERGY, V77, P667, DOI 10.1016/j.solener.2004.08.020
   Kahouli-Brahmi S, 2008, ENERG POLICY, V36, P138, DOI 10.1016/j.enpol.2007.09.001
   Kamp LM, 2004, ENERG POLICY, V32, P1625, DOI 10.1016/80301-4215(03)00134-4
   Lee J, 2013, RES POLICY, V42, P1469, DOI 10.1016/j.respol.2013.05.004
   Lewis JI, 2007, ENERG POLICY, V35, P1844, DOI 10.1016/j.enpol.2006.06.005
   Markard J, 2011, J INFRASTRUCT SYST, V17, P107, DOI 10.1061/(ASCE)IS.1943-555X.0000056
   Martinelli A, 2014, J EVOL ECON, V24, P623, DOI 10.1007/s00191-014-0349-5
   Martinelli A, 2012, RES POLICY, V41, P414, DOI 10.1016/j.respol.2011.10.012
   Menanteau P, 2000, TECHNOL FORECAST SOC, V63, P63, DOI 10.1016/S0040-1625(99)00056-6
   Menzel M.-P., 2011, DIME FIN C 6 8 APR 2
   Miller R., 1995, IND CORP CHANGE, V4, P363, DOI DOI 10.1093/ICC/4.2.363
   Mina A, 2007, RES POLICY, V36, P789, DOI 10.1016/j.respol.2006.12.007
   Moore LM, 2008, PROG PHOTOVOLTAICS, V16, P249, DOI 10.1002/pip.800
   Murmann JP, 2006, RES POLICY, V35, P925, DOI 10.1016/j.respol.2006.04.011
   Murmann J.P., 2002, MANAG MODUL AGE ARCH
   Grubler A, 2014, ENERGY TECHNOLOGY INNOVATION: LEARNING FROM HISTORICAL SUCCESSES AND FAILURES, P1
   Nemet GF, 2006, ENERG POLICY, V34, P3218, DOI 10.1016/j.enpol.2005.06.020
   Nemet GF, 2012, RES POLICY, V41, P190, DOI 10.1016/j.respol.2011.08.009
   Nemet GF, 2009, RES POLICY, V38, P700, DOI 10.1016/j.respol.2009.01.004
   Nightingale P, 2000, RES POLICY, V29, P913, DOI 10.1016/S0048-7333(00)00112-8
   Norberg-Bohm V, 2000, TECHNOL FORECAST SOC, V65, P125, DOI 10.1016/S0040-1625(00)00076-7
   PCAST, 1999, REP PRES POW PARTN F
   Pernick R.O.N., 2013, CLEAN ENERGY TRENDS
   Peters M., 2011, THESIS ETH ZURICH
   Peters M, 2012, RES POLICY, V41, P1296, DOI 10.1016/j.respol.2012.02.004
   Pielke R, 2008, NATURE, V452, P531, DOI 10.1038/452531a
   Pizer WA, 2008, ENERG ECON, V30, P2754, DOI 10.1016/j.eneco.2008.02.006
   Prabhakaran T, 2015, TECHNOL FORECAST SOC, V91, P124, DOI 10.1016/j.techfore.2014.02.003
   Prencipe A, 2000, RES POLICY, V29, P895, DOI 10.1016/S0048-7333(00)00111-6
   Rosenberg N., 1982, INSIDE BLACK BOX TEC
   Rosenkopf L, 2001, STRATEGIC MANAGE J, V22, P287, DOI 10.1002/smj.160
   Rosenkopf L, 1999, VAR ORG SCI HONOR DT
   Routley M, 2013, TECHNOL FORECAST SOC, V80, P1147, DOI 10.1016/j.techfore.2012.04.015
   Suarez F., 1993, RES TECHNOL INNOV MA, P79
   Tang T., 2014, 19921 NBER
   Taylor M., 2013, ACCOUNTING TECHNOLOG
   Trancik JE, 2006, ENVIRON RES LETT, V1, DOI 10.1088/1748-9326/1/1/014009
   UTTERBACK JM, 1975, OMEGA-INT J MANAGE S, V3, P639, DOI 10.1016/0305-0483(75)90068-7
   Van Zeebroeck N, 2011, EC INNOVATION NEW TE, V20, P33, DOI DOI 10.1080/10438590903038256
   VERNON R, 1966, Q J ECON, V80, P190, DOI 10.2307/1880689
   Verspagen B, 2007, ADV COMPLEX SYST, V10, P93, DOI 10.1142/S0219525907000945
   Wiesenthal T, 2012, RES POLICY, V41, P116, DOI 10.1016/j.respol.2011.08.007
   Wilson C, 2012, ENERG POLICY, V50, P81, DOI 10.1016/j.enpol.2012.04.077
   Winskel M, 2014, TECHNOL FORECAST SOC, V81, P96, DOI 10.1016/j.techfore.2012.10.015
NR 94
TC 9
Z9 9
U1 9
U2 24
PU ELSEVIER SCIENCE INC
PI NEW YORK
PA 360 PARK AVE SOUTH, NEW YORK, NY 10010-1710 USA
SN 0040-1625
EI 1873-5509
J9 TECHNOL FORECAST SOC
JI Technol. Forecast. Soc. Chang.
PD MAR
PY 2016
VL 104
BP 102
EP 121
DI 10.1016/j.techfore.2015.09.022
PG 20
WC Business; Planning & Development
SC Business & Economics; Public Administration
GA DG9CZ
UT WOS:000372381700009
ER

PT J
AU Maleki, A
   Pourfayaz, F
   Rosen, MA
AF Maleki, Akbar
   Pourfayaz, Fathollah
   Rosen, Marc A.
TI A novel framework for optimal design of hybrid renewable energy-based
   autonomous energy systems: A case study for Namin, Iran
SO ENERGY
LA English
DT Article
DE Hybrid energy system; Renewable energy; Optimization; Simulated
   annealing; Harmony search; Chaotic search
ID POWER-GENERATION SYSTEMS; TECHNOECONOMIC ANALYSIS; MANAGEMENT
   STRATEGIES; ARTIFICIAL-INTELLIGENCE; SWARM OPTIMIZATION; PV/WIND SYSTEM;
   COST-ANALYSIS; WIND; STORAGE; FEASIBILITY
AB An optimization model is developed to determine the most advantageous size of autonomous hybrid photovoltaic/wind turbine/fuel cell, wind turbine/fuel cell and photovoltaic/fuel cell systems for electrification of a remote area involving five homes (1 block) located in Namin, Ardabil, Iran. The model is developed based on three decision variables related to the system renewable energy components: number of storage tanks, total swept area by the rotating turbine blades and total area occupied by the set of photovoltaic panels. The former is an integer decision variable, while the latter two are continuous decision variables. All the components are modeled and an objective function is defined based on minimizing the life cycle cost and satisfying the maximum allowable loss of power supply probability. To determine optimal values of the variables that satisfy the load in the most cost-effective way, the use of simulated annealing and a combination of simulated annealing with harmony search and chaotic search is proposed. The simulation results indicate that the grid-independent hybrid photovoltaic/wind turbine/fuel cell system is the most cost-effective for supplying the block's electrical energy demands and that the simulated annealing-based harmony search algorithm yields more promising results than the other algorithms. (C) 2016 Elsevier Ltd. All rights reserved.
C1 [Maleki, Akbar; Pourfayaz, Fathollah] Univ Tehran, Fac New Sci & Technol, Dept Renewable Energies, Tehran, Iran.
   [Rosen, Marc A.] Univ Ontario, Inst Technol, Fac Engn & Appl Sci, Oshawa, ON L1H 7K4, Canada.
RP Maleki, A; Pourfayaz, F (reprint author), Univ Tehran, Fac New Sci & Technol, Dept Renewable Energies, Tehran, Iran.
EM akbar.maleki20@yahoo.com; pourfayaz@ut.ac.ir; marc.rosen@uoit.ca
CR Bakelli Y, 2011, SOL ENERGY, V85, P288, DOI 10.1016/j.solener.2010.11.023
   Bakic V, 2012, ENERGY, V45, P324, DOI 10.1016/j.energy.2011.11.063
   Behzadi MS, 2015, INT J HYDROGEN ENERG, V40, P538, DOI 10.1016/j.ijhydene.2014.10.097
   Bekele G, 2012, APPL ENERG, V97, P5, DOI 10.1016/j.apenergy.2011.11.059
   Belfkira R, 2011, SOL ENERGY, V85, P100, DOI 10.1016/j.solener.2010.10.018
   Belmili H, 2014, RENEW SUST ENERG REV, V30, P821, DOI 10.1016/j.rser.2013.11.011
   Borowy BS, 1996, IEEE T ENERGY CONVER, V11, P367, DOI 10.1109/60.507648
   Caballero F, 2013, ENERGY, V61, P248, DOI 10.1016/j.energy.2013.08.030
   Campana PE, 2015, ENERG CONVERS MANAGE, V95, P32, DOI 10.1016/j.enconman.2015.01.066
   Castaneda M, 2013, INT J HYDROGEN ENERG, V38, P3830, DOI 10.1016/j.ijhydene.2013.01.080
   Celik AN, 2002, ENERG CONVERS MANAGE, V43, P2453, DOI 10.1016/S0196-8904(01)00198-4
   Chavez-Ramirez AU, 2013, INT J HYDROGEN ENERG, V38, P2641, DOI 10.1016/j.ijhydene.2012.11.140
   Comodi G, 2015, ENERGY, V89, P226, DOI 10.1016/j.energy.2015.07.072
   Diaf S, 2008, APPL ENERG, V85, P968, DOI 10.1016/j.apenergy.2008.02.012
   Diaf S, 2007, ENERG POLICY, V35, P5708, DOI 10.1016/j.enpol.2007.06.020